%mem=9800MB
%chk=input.chk
#p B3LYP/6-311+G* sp EmpiricalDispersion(GD3) 

no title

0 1
 C	-1.204992	 0.695664	 0.125210
 C	-1.204983	-0.695666	 0.125210
 C	-0.000009	-1.391218	 0.123701
 C	 1.205001	-0.695688	 0.125210
 C	 1.205010	 0.695685	 0.125210
 C	-0.000010	 1.391232	 0.123701
 H	-2.135638	 1.233437	 0.118928
 H	-2.135641	-1.233437	 0.118928
 H	 0.000001	-2.465880	 0.113485
 H	 2.135631	-1.233430	 0.118928
 H	 2.135629	 1.233429	 0.118928
 H	 0.000001	 2.465875	 0.113485
 C	-0.000009	-1.391218	-3.723701
 C	 1.205001	-0.695688	-3.725210
 C	 1.205010	 0.695685	-3.725210
 C	-0.000010	 1.391232	-3.723701
 C	-1.204992	 0.695664	-3.725210
 C	-1.204983	-0.695666	-3.725210
 H	 0.000001	-2.465880	-3.713485
 H	 2.135631	-1.233430	-3.718928
 H	 2.135629	 1.233429	-3.718928
 H	 0.000001	 2.465875	-3.713485
 H	-2.135638	 1.233437	-3.718928
 H	-2.135641	-1.233437	-3.718928


