%mem=9800MB
%chk=input.chk
#n B3LYP/6-31+G(d) opt Counterpoise(2) 

no title

0 1
 H(Fragment=1)	 1.000000	 0.000000	 0.000000
 H(Fragment=1)	 0.000000	 1.000000	 0.000000
 O(Fragment=1)	 0.000000	 0.000000	 0.000000
 H(Fragment=2)	 3.000000	 0.000000	 0.000000
 H(Fragment=2)	 2.000000	 1.000000	 0.000000
 O(Fragment=2)	 2.000000	 0.000000	 0.000000


